56
# C56-Cs-864 from email from 宋秀能 <xiuneng@sdnu.edu.cn , and this from from http://ctcp.massey.ac.nz/index.php?page=fullerenes 
C       2.257105      0.777779     -2.566263
C       2.533914     -0.605808     -2.513555
C       1.503423     -1.568677     -2.530590
C       0.149312     -1.187807     -2.834933
C      -0.071074      0.192485     -3.141778
C       0.957567      1.173230     -2.911968
C       2.951465      1.411246     -1.436687
C       3.677021      0.364338     -0.708975
C       3.430964     -0.862014     -1.381921
C       2.980658     -2.020389     -0.707602
C      -0.951488     -1.944737     -2.219316
C      -2.268099     -1.345932     -2.162366
C      -2.435161      0.090560     -2.430213
C      -1.347694      0.828272     -2.840182
C      -1.080068      2.137110     -2.253037
C       0.352460      2.327668     -2.267658
C       0.998528      2.911935     -1.174289
C       2.297202      2.413607     -0.732528
C       0.222105      3.260205      0.000040
C      -1.169044      3.101987      0.000038
C      -1.844625      2.569533     -1.168065
C      -2.999241      1.796064     -0.729135
C      -3.360122      0.633046     -1.429191
C      -3.184606     -1.697723      1.157712
C      -0.626284     -2.856536      1.172396
C      -3.869476     -0.483377      0.695729
C       0.742389     -3.040326     -0.734607
C       1.795180     -2.498536      1.434122
C      -1.469504     -2.962331     -0.000037
C      -2.762023     -2.428977     -0.000031
C       3.677019      0.364320      0.708985
C       2.951462      1.411208      1.436722
C       2.297200      2.413588      0.732588
C       0.998527      2.911906      1.174361
C      -0.951490     -1.944794      2.219270
C      -2.435162      0.090500      2.430213
C      -3.360123      0.633011      1.429205
C      -3.869475     -0.483359     -0.695743
C      -3.184605     -1.697694     -1.157756
C       1.503421     -1.568740      2.530552
C       0.149310     -1.187878      2.834905
C      -0.071077      0.192407      3.141784
C      -1.347696      0.828201      2.840201
C      -2.999242      1.796046      0.729177
C      -1.844626      2.569505      1.168127
C      -1.080070      2.137055      2.253088
C       0.352459      2.327611      2.267714
C       0.957565      1.173158      2.911997
C       2.257103      0.777715      2.566283
C       2.533913     -0.605870      2.513543
C       3.430962     -0.862048      1.381902
C       2.980658     -2.020407      0.707555
C      -0.626283     -2.856506     -1.172466
C       1.795181     -2.498500     -1.434182
C      -2.268101     -1.345987      2.162331
C       0.742389     -3.040345      0.734533

