58
#C58-C3-1202 from http://ctcp.massey.ac.nz/index.php?page=fullerenes 
C   2.899077002   -1.137658322   -2.117507134
C   3.30235228   -1.189109513   -0.722555064
C   2.653911154   -2.349370221   -0.123434303
C   1.900564096   -2.170547845   -2.33036025
C   1.634348646   -2.803975861   -1.049786356
C   0.789417618   -1.57730891   -3.051697988
C   2.374101234   0.106096847   -2.647931715
C   1.011425634   -0.140129907   -3.09256247
C   2.653911154   1.281582352   -1.972897143
C   3.408967886   1.16501E-12   9.82319E-13
C   3.30235228   1.220305798   -0.668521514
C   3.30235228   -0.031196285   1.391076578
C   2.374101234   -2.346224556   1.232083293
C   2.899077002   -1.264985809   2.043994575
C   1.011425634   -2.608172709   1.667637294
C   0.311014821   -2.925708649   -0.62788524
C   -0.013130623   -2.708783894   0.72159205
C   -0.4853224   -2.041742973   -2.775957297
C   -0.682742337   -2.881477506   -1.603070137
C   -1.589044005   -1.103623008   -2.803851817
C   -0.013130623   0.7294749   -2.706671691
C   -1.337190401   0.261292981   -2.678566477
C   1.634348646   2.311129583   -1.903421149
C   0.311014821   2.006618893   -2.219795395
C   2.899077002   2.402644132   0.073512559
C   1.900564096   3.103425099   -0.714569449
C   2.653911154   1.067787869   2.096331446
C   2.374101234   2.240127709   1.415848422
C   1.900564096   -0.932877254   3.044929699
C   0.789417618   -1.854193527   2.89183858
C   1.634348646   0.492846278   2.953207505
C   -0.4853224   -1.383178053   3.156179931
C   -1.337190401   -2.450353106   1.112996879
C   -1.589044005   -1.876395398   2.35769147
C   -2.067766125   -2.751736281   -1.208628687
C   -2.658752106   -1.69731215   -2.019819257
C   -2.366813641   -2.463728303   0.174716672
C   -3.442895118   -0.843601629   -1.14409479
C   -3.368878358   -1.406983722   0.195900752
C   -2.366813641   1.080555075   -2.221009634
C   -3.368878358   0.533836833   -1.316434022
C   -0.682742337   2.829038216   -1.693897652
C   -2.067766125   2.422571287   -1.778759181
C   0.789417618   3.431502437   0.159859408
C   1.011425634   2.748302616   1.424925176
C   -0.4853224   3.424921026   -0.380222634
C   0.311014821   0.919089756   2.847680634
C   -0.682742337   0.05243929   3.296967789
C   -0.013130623   1.979308994   1.98507964
C   -2.658752106   -0.900558713   2.479825069
C   -3.442895118   -0.569014338   1.302627836
C   -2.067766125   0.329164994   2.987387867
C   -3.442895118   1.412615967   -0.158533046
C   -2.658752106   2.597870863   -0.460005812
C   -1.589044005   2.980018406   0.446160347
C   -1.337190401   2.189060124   1.565569598
C   -3.368878358   0.873146888   1.12053327
C   -2.366813641   1.383173228   2.046292962
