58
#C58-Cs-1204 from http://ctcp.massey.ac.nz/index.php?page=fullerenes  after relaxation with Quantum Espresso
C	2.532926284	-2.513862719	-0.270879504
C	3.014752981	-1.44756087	-0.966933015
C	3.531638459	-0.548674464	-0.027848528
C	2.564648941	-2.235200563	1.075185077
C	3.140041876	-1.010676036	1.230815995
C	1.363499391	-2.570790553	1.617170097
C	1.362715721	-3.143920918	-0.563350461
C	0.660761349	-3.282927719	0.641248218
C	0.698684578	-2.742269288	-1.654164714
C	2.285691988	-0.987640076	-2.048969676
C	1.137055682	-1.661153869	-2.378840596
C	2.317112477	0.364391696	-2.306443268
C	3.489217113	0.761041598	-0.282560851
C	3.02055312	1.184402601	-1.49556617
C	3.002366577	1.664072364	0.671708159
C	2.561334927	-0.169614141	2.093280181
C	2.536208362	1.200493625	1.833357314
C	0.703858272	-1.688840258	2.43966467
C	1.365029881	-0.514259324	2.711937092
C	-0.703858272	-1.688840258	2.43966467
C	-0.660761349	-3.282927719	0.641248218
C	-1.363499391	-2.570790553	1.617170097
C	-0.698684578	-2.742269288	-1.654164714
C	-1.362715721	-3.143920918	-0.563350461
C	0.0000000000	-0.971856132	-2.777910293
C	-1.137055682	-1.661153869	-2.378840596
C	1.17086403	1.057649545	-2.690345639
C	0.000000000	0.400610013	-2.920471859
C	2.311484304	2.359587869	-1.330472256
C	2.269055588	2.653955356	-0.008578604
C	1.171271833	2.295125505	-2.063122407
C	1.122030841	3.136401128	0.51322262
C	1.372068169	1.716462775	2.378884816
C	0.673892117	0.65724589	2.924874167
C	0.696847007	2.685304603	1.74196275
C	-1.365029881	-0.514259324	2.711937092
C	-0.673892117	0.65724589	2.924874167
C	-2.561334927	-0.169614141	2.093280181
C	-2.564648941	-2.235200563	1.075185077
C	-2.532926284	-2.513862719	-0.270879504
C	-3.140041876	-1.010676036	1.230815995
C	-2.285691988	-0.987640076	-2.048969676
C	-3.014752981	-1.44756087	-0.966933015
C	-3.531638459	-0.548674464	-0.027848528
C	-1.170864030	1.057649545	-2.690345639
C	-2.317112477	0.364391696	-2.306443268
C	0.0000000000	2.831371802	-1.583187327
C	0.0000000000	3.301824233	-0.289004631
C	-1.171271833	2.295125505	-2.063122407
C	-0.696847007	2.685304603	1.74196275
C	-1.372068169	1.716462775	2.378884816
C	-2.536208362	1.200493625	1.833357314
C	-1.122030841	3.136401128	0.51322262
C	-3.489217113	0.761041598	-0.282560851
C	-3.020553120	1.184402601	-1.49556617
C	-2.311484304	2.359587869	-1.330472256
C	-3.002366577	1.664072364	0.671708159
C	-2.269055588	2.653955356	-0.008578604