60
#C60-C2v-1809 from http://ctcp.massey.ac.nz/index.php?page=fullerenes 
C	2.719272788	-2.638950159	0.727495732
C	1.385763564	-3.017587959	1.164695651
C	0.691345455	-3.535771356	-8.62728E-14
C	2.719272788	-2.638950159	-0.727495732
C	1.385763564	-3.017587959	-1.164695651
C	3.275474273	-1.376814951	-1.177863469
C	3.275474273	-1.376814951	1.177863469
C	3.674949436	-0.620278738	3.41761E-14
C	2.672852199	-0.724124066	2.245958536
C	0.699753322	-2.198833816	2.061350538
C	1.401730719	-1.215196111	2.760350793
C	-0.699753322	-2.198833816	2.061350538
C	-0.691345455	-3.535771356	-1.01893E-13
C	-1.385763564	-3.017587959	1.164695651
C	-1.385763564	-3.017587959	-1.164695651
C	0.699753322	-2.198833816	-2.061350538
C	-0.699753322	-2.198833816	-2.061350538
C	2.672852199	-0.724124066	-2.245958536
C	1.401730719	-1.215196111	-2.760350793
C	2.632915678	0.72929812	-2.277995164
C	3.573018916	0.767466924	7.12351E-14
C	3.068793692	1.459208728	-1.176993483
C	2.632915678	0.72929812	2.277995164
C	3.068793692	1.459208728	1.176993483
C	0.693428022	-0.08433043	3.333921246
C	1.421486185	1.125382561	2.980015342
C	-1.401730719	-1.215196111	2.760350793
C	-0.693428022	-0.08433043	3.333921246
C	-2.672852199	-0.724124066	2.245958536
C	-2.719272788	-2.638950159	0.727495732
C	-2.719272788	-2.638950159	-0.727495732
C	-3.275474273	-1.376814951	1.177863469
C	-3.275474273	-1.376814951	-1.177863469
C	-3.674949436	-0.620278738	-6.55159E-14
C	-1.401730719	-1.215196111	-2.760350793
C	-2.672852199	-0.724124066	-2.245958536
C	0.693428022	-0.08433043	-3.333921246
C	1.421486185	1.125382561	-2.980015342
C	-0.693428022	-0.08433043	-3.333921246
C	0.727376937	2.262721383	-2.581011649
C	2.312831168	2.618351564	-0.727506899
C	2.312831168	2.618351564	0.727506899
C	1.177039458	3.020122209	-1.422890908
C	0.727376937	2.262721383	2.581011649
C	1.177039458	3.020122209	1.422890908
C	-1.421486185	1.125382561	2.980015342
C	-2.632915678	0.72929812	2.277995164
C	-0.727376937	2.262721383	2.581011649
C	-3.573018916	0.767466924	-2.73259E-14
C	-3.068793692	1.459208728	1.176993483
C	-2.632915678	0.72929812	-2.277995164
C	-1.421486185	1.125382561	-2.980015342
C	-0.727376937	2.262721383	-2.581011649
C	-3.068793692	1.459208728	-1.176993483
C	2.40023E-14	3.470089024	-0.695498426
C	4.70904E-15	3.470089024	0.695498426
C	-1.177039458	3.020122209	1.422890908
C	-2.312831168	2.618351564	0.727506899
C	-1.177039458	3.020122209	-1.422890908
C	-2.312831168	2.618351564	-0.727506899
