60
#C60-D2h-1810 from  http://ctcp.massey.ac.nz/index.php?page=fullerenes 
C   2.724797355   -2.668978664   0.727790182
C   1.383368872   -3.020837783   1.162776343
C   0.691348916   -3.545921461   -4.1522E-13
C   2.724797355   -2.668978664   -0.727790182
C   1.383368872   -3.020837783   -1.162776343
C   3.306721788   -1.418288549   -1.176469982
C   3.306721788   -1.418288549   1.176469982
C   3.767497238   -0.695539762   3.02504E-14
C   2.694317593   -0.727367301   2.214637183
C   0.699565395   -2.177941368   2.03880103
C   1.398257852   -1.172402229   2.709669664
C   -0.699565395   -2.177941368   2.03880103
C   -0.691348916   -3.545921461   1.84877E-14
C   -1.383368872   -3.020837783   1.162776343
C   -1.383368872   -3.020837783   -1.162776343
C   0.699565395   -2.177941368   -2.03880103
C   -0.699565395   -2.177941368   -2.03880103
C   2.694317593   -0.727367301   -2.214637183
C   1.398257852   -1.172402229   -2.709669664
C   2.694317593   0.727367301   -2.214637183
C   3.767497238   0.695539762   1.58895E-13
C   3.306721788   1.418288549   -1.176469982
C   2.694317593   0.727367301   2.214637183
C   3.306721788   1.418288549   1.176469982
C   0.691522052   -2.51726E-13   3.195809319
C   1.398257852   1.172402229   2.709669664
C   -1.398257852   -1.172402229   2.709669664
C   -0.691522052   -1.09193E-13   3.195809319
C   -2.694317593   -0.727367301   2.214637183
C   -2.724797355   -2.668978664   0.727790182
C   -2.724797355   -2.668978664   -0.727790182
C   -3.306721788   -1.418288549   1.176469982
C   -3.306721788   -1.418288549   -1.176469982
C   -3.767497238   -0.695539762   -7.52037E-14
C   -1.398257852   -1.172402229   -2.709669664
C   -2.694317593   -0.727367301   -2.214637183
C   0.691522052   8.98072E-14   -3.195809319
C   1.398257852   1.172402229   -2.709669664
C   -0.691522052   2.17274E-13   -3.195809319
C   0.699565395   2.177941368   -2.03880103
C   2.724797355   2.668978664   -0.727790182
C   2.724797355   2.668978664   0.727790182
C   1.383368872   3.020837783   -1.162776343
C   0.699565395   2.177941368   2.03880103
C   1.383368872   3.020837783   1.162776343
C   0.691348916   3.545921461   -4.02829E-14
C   -1.398257852   1.172402229   2.709669664
C   -2.694317593   0.727367301   2.214637183
C   -0.699565395   2.177941368   2.03880103
C   -3.767497238   0.695539762   5.62527E-14
C   -3.306721788   1.418288549   1.176469982
C   -2.694317593   0.727367301   -2.214637183
C   -1.398257852   1.172402229   -2.709669664
C   -0.699565395   2.177941368   -2.03880103
C   -3.306721788   1.418288549   -1.176469982
C   -0.691348916   3.545921461   3.68112E-13
C   -1.383368872   3.020837783   1.162776343
C   -2.724797355   2.668978664   0.727790182
C   -1.383368872   3.020837783   -1.162776343
C   -2.724797355   2.668978664   -0.727790182 
