62
# C62-C1-2382 from http://ctcp.massey.ac.nz/index.php?page=fullerenes 
C   2.219561718   -3.092386327   0.866659301
C   0.813435027   -3.264571478   1.18790444
C   0.109680995   -3.514499739   -0.059522428
C   2.333697244   -2.992837048   -0.581014835
C   1.012139674   -3.155042681   -1.141460063
C   3.066999924   -1.786435472   -0.88491757
C   2.947656627   -1.98072437   1.447470831
C   3.627916316   -1.291041415   0.363295346
C   2.354185385   -1.245326422   2.46461388
C   0.216506237   -2.460253706   2.153838325
C   0.979947957   -1.530020388   2.858998271
C   -1.168037317   -2.337951562   2.151741245
C   -1.234216552   -3.167240938   -0.170669744
C   -1.91877947   -2.744800115   0.971969807
C   -1.721596676   -2.838272378   -1.435073579
C   0.562214747   -2.27236062   -2.116504941
C   -0.79412895   -2.328540512   -2.434667116
C   2.548943801   -0.879913778   -1.807221083
C   1.30329672   -1.115599907   -2.412080578
C   3.121064609   0.391349114   -1.868286117
C   3.911495456   0.064048931   0.478627945
C   3.868636683   0.879508353   -0.722269149
C   2.549156805   0.195813923   2.525861314
C   3.309216881   0.835989237   1.557731242
C   0.375055683   -0.277817098   3.28660259
C   1.299247092   0.796299997   2.958505081
C   -1.78858191   -1.135689755   2.688458233
C   -0.988745852   -0.071053049   3.107016878
C   -3.083881576   -1.874830987   0.864228119
C   -3.012457305   -0.892828145   1.934909598
C   -2.966217485   -2.103785862   -1.565927336
C   -3.552001297   -1.496856821   -0.38737
C   -1.438528813   -1.222766796   -3.123311297
C   -2.764317608   -1.05711161   -2.554683625
C   0.738818761   -0.125160039   -3.216544885
C   -0.696929531   -0.091431058   -3.414706162
C   2.358103165   1.508939932   -2.395414514
C   1.177753312   1.251400655   -3.074948966
C   3.325797359   2.177918562   -0.36280844
C   2.828684264   2.088237189   0.999738974
C   2.412267812   2.58537874   -1.415784214
C   0.811700932   1.940727485   2.330217558
C   1.532803943   2.521749897   1.279159284
C   -1.448972796   1.238341327   2.981034951
C   -0.529042208   2.271291219   2.525898568
C   -3.432182143   0.410458529   1.703785873
C   -2.742345914   1.495205513   2.374405591
C   -3.773872925   -0.088180369   -0.679938784
C   -3.105070786   0.210901487   -1.933832929
C   -3.722033374   0.84446414   0.344513014
C   -1.165873612   1.203767813   -2.942880957
C   -0.002754057   2.064126282   -2.815827183
C   -2.193478919   1.264335695   -1.999518944
C   1.245678009   3.248605512   -1.058879501
C   0.880906305   3.330707202   0.347431137
C   0.023784729   3.024479916   -1.816414185
C   -1.228445649   3.095023834   1.552980455
C   -2.577665815   2.577429755   1.418643435
C   -3.011555773   2.09084513   0.121028951
C   -2.152326996   2.213699277   -0.970986895
C   -0.558136996   3.493179687   0.409375298
C   -1.094175869   3.12110611   -0.893179514
