62
# C62 with a 4-carbon ring from the Supporting Information of J. Am. Chem. Soc. 2000, 122, 8333-8334, C62, a Non-Classical Fullerene Incorporating a Four-Membered Ring
C  -1.174275  3.066681  -1.628
C  -0.727490  2.317278  -2.788
C  0.727494  2.317278  -2.788529 
C  1.174275  3.066681  -1.628293 
C  0.000000  3.552331  -0.9285 
C  0.000000  3.613806  0.46238
C  1.161201  3.175363  1.215266 
C  0.710810  2.547809  2.436271 
C  -0.710810  2.547809  2.436271 
C  -1.161421  3.176363  1.213266 
C  2.282121  2.620725  -0.895821 
C  2.984830  1.42300  -1.300767 
C  3.363902  0.697221  -0.1099070 
C  2.896448  1.409760  1.044
C  2.256290  2.642723  0.553573 
C  1.423888  1.177521  -3.19886876 
C  2.581035  0.727079  -2.447140 
C  2.581335  -0.727  -2.447190 
C  1.422220  -1.177521  -3.19886
C  0.698272  0.000000  -3.646
C  -1.422808  1.177621  -3.1988
C  -2.5800  0.727072  -2.447140 
C  -2.5800  -0.727079  -2.447190 
C  -1.422808  -1.177621  -3.1988
C  -0.69820   0.000000  -3.646
C  -2.28200   2.620725  -0.896
C  -2.984830   1.423299  -1.309 
C  -3.363902   0.697221  -0.10978
C  -2.89644  1.409760  1.040070 
C  -2.25699  2.642723  0.552573 
C  0.712810  -2.547809  2.436271 
C  1.161481  -3.1753  1.213266 
C  0.000000  -3.613886  0.462022 
C  -1.161481  -3.1753  1.213265 
C  -0.7138  -2.547809  2.436271 
C  -1.430206  -1.45  3.021276 
C  -2.4386256  -0.74  2.1990427 
C  -2.438258  0.740005  2.199407 
C  -1.44  1.454424  3.021370 
C  -0.718252  0.739247  3.967630 
C  -2.256  -2.642723  0.552573 
C  -2.28  -2.620725  -0.89585621
C  -2.98  -1.423849  -1.309767
C  -3.36  -0.697   -0.1097
C  -2.89  -1.409760   1.044
C  0.000000  -3.55   -0.9287
C  -1.1742  -3.0666   -1.6282
C  -0.72474  -2.31   -2.7889
C  0.7204  -2.31   -2.7889
C  1.17425  -3.06   -1.628
C  2.256660  -2.64   0.5525
C  2.806448  -1.41   1.044
C  3.362602  -0.697   -0.10978
C  2.984030  -1.423849   -1.309
C  2.282121  -2.620725   -0.89
C  1.4395266  -1.454421   3.02
C  2.438258  -0.7408   2.199
C  2.438358  0.740803   2.199 
C  1.4390306  1.454424  3.021376 
C  0.718152  0.739247  3.967680 
C  -0.718152  -0.739247  3.967680 
C  0.71825  -0.739247  3.967680 
