64
 # C64-C3v from from Cui et al, "Structures, stabilities, electronic, and optical properties of C64 fullerene isomers, anions (C 642− and C644−), metallofullerene Sc2@C64, and Sc2C2@C64",  C64-C3v_PM3_0003svwnhcth.chk
C   0.1058350541   -3.5214605306   -0.6710833717
C   0.5640548674   -3.4963265388   0.6496702345
C   -0.319591154   -3.0115150996   1.7214968126
C   0.5205889444   -2.3154188471   2.6746609856
C   0.0240405958   -1.1759267781   3.3498167822
C   0.8743783277   0.0000227502   3.5263911378
C   0.0240390579   1.1759681945   3.3498027351
C   0.5205840815   2.3154519632   2.6746328707
C   -0.319597162   3.0115379644   1.7214607812
C   0.5640471842   3.4963356678   0.6496282453
C   0.1058273239   3.5214518653   -0.6711261195
C   0.9691278204   3.074329864   -1.7596538147
C   0.1199507515   2.3381461906   -2.6908815489
C   0.6007065944   1.1771091025   -3.316790133
C   -0.2683175343   -0.0000214061   -3.426895921
C   0.6007094467   -1.1771506365   -3.3167756889
C   0.1199567898   -2.3381800151   -2.6908533388
C   0.9691348268   -3.0743511613   -1.7596169753
C   -1.2643962563   -3.1018160637   -0.9614102799
C   -1.2506496507   -2.3769465123   -2.2136441861
C   -2.1524987049   -1.2765598895   -2.4280012415
C   -1.6141470329   -0.0000195879   -2.9671077928
C   -2.1525001704   1.2765259742   -2.4280166163
C   -1.2506542993   2.3769160752   -2.2136750877
C   -1.2644023161   3.1018009913   -0.9614467099
C   -2.1871867244   2.7694260919   0.0891157151
C   -1.6646971138   2.6043452152   1.4647209114
C   -2.200161104   1.4812936818   2.2614586153
C   -1.3240329714   0.7456220688   3.1085690652
C   -1.3240313228   -0.7455873343   3.1085807395
C   -2.2001587967   -1.4812694921   2.261477911
C   -1.6646915806   -2.6043270956   1.4647511222
C   -2.1871826569   -2.7694296958   0.0891489654
C   -3.3261170242   -2.0096687634   -0.3263695302
C   -3.2922308911   -1.2648898691   -1.5743896459
C   -3.9868992787   -0.0000105939   -1.3166654025
C   -3.2922324219   1.2648625589   -1.5744029804
C   -3.3261214989   2.0096568519   -0.326391324
C   -4.0702586809   1.1853301797   0.6449763811
C   -3.353709766   0.7538309724   1.7834458229
C   -3.3537065367   -0.7538133555   1.7834563465
C   -4.0702476511   -1.18532433   0.6449886105
C   -4.5772344982   -0.0000027933   -0.0352321167
C   1.9332687055   -3.0573131584   0.9339175392
C   1.9052022778   -2.323670157   2.1946222038
C   2.7234915651   -1.1875686052   2.3673810057
C   2.1907353216   0.000020722   3.0425765569
C   2.7234893347   1.1876024022   2.3673667392
C   1.9051981782   2.3237004631   2.194593885
C   1.9332626679   3.0573278732   0.9338805124
C   2.7736649746   2.6279980765   -0.1149002575
C   2.2768626918   2.6304587912   -1.4922598199
C   2.7921881287   1.4384994106   -2.1650104533
C   1.9660100428   0.7312562803   -3.0670610823
C   1.9660121995   -0.7312911509   -3.0670524354
C   2.7921916724   -1.4385215348   -2.1649935001
C   2.276868823   -2.6304737842   -1.492227929
C   2.773670334   -2.6279945557   -0.1148684199
C   3.6094847614   -1.4381504609   0.0575383154
C   3.5871832571   -0.7332817742   1.2793200548
C   3.5871817828   0.7333038994   1.2793109688
C   3.6094815172   1.4381577574   0.057520805
C   3.624611608   0.7059133828   -1.2107421815
C   3.6246132883   -0.7059217114   -1.2107334729
