64
# from from Cui et al, "Structures, stabilities, electronic, and optical properties of C64 fullerene isomers, anions (C 642− and C644−), metallofullerene Sc2@C64, and Sc2C2@C64", C64-D2_0003-HCTC-B3LYP.log
C  -1.740517   3.305219   0.651263
C  -1.44534   2.800883   1.919368
C  -0.067953   2.67631   2.342408
C  0.090126   1.39821   3.020666
C  1.304697   0.667907   2.929394
C  1.187924   -0.745069   3.044266
C  2.156203   -1.628124   2.410773
C  1.44534   -2.800883   1.919368
C  1.740517   -3.305219   0.651263
C  0.65647   -3.695104   -0.228268
C  0.960634   -3.159317   -1.549015
C  -0.067953   -2.67631   -2.342408
C  0.090126   -1.39821   -3.020666
C  -1.187924   -0.745069   -3.044266
C  -1.304697   0.667907   -2.929394
C  -2.438352   1.23744   -2.184371
C  -2.231766   2.464328   -1.483635
C  -2.763788   2.657353   -0.148168
C  -0.65647   3.695104   -0.228268
C  -0.960634   3.159317   -1.549015
C  0.067953   2.67631   -2.342408
C  -0.090126   1.39821   -3.020666
C  1.187924   0.745069   -3.044266
C  1.304697   -0.667907   -2.929394
C  2.438352   -1.23744   -2.184371
C  2.231766   -2.464328   -1.483635
C  2.763788   -2.657353   -0.148168
C  3.584769   -1.681714   0.41838
C  3.231244   -1.109317   1.724943
C  3.422598   0.340806   1.648981
C  2.438352   1.23744   2.184371
C  2.231766   2.464328   1.483635
C  0.960634   3.159317   1.549015
C  0.65647   3.695104   0.228268
C  1.740517   3.305219   -0.651263
C  1.44534   2.800883   -1.919368
C  2.156203   1.628124   -2.410773
C  3.231244   1.109317   -1.724943
C  3.422598   -0.340806   -1.648981
C  4.025642   -0.615735   -0.39755
C  4.025642   0.615735   0.39755
C  3.584769   1.681714   -0.41838
C  2.763788   2.657353   0.148168
C  -2.156203   1.628124   2.410773
C  -1.187924   0.745069   3.044266
C  -1.304697   -0.667907   2.929394
C  -0.090126   -1.39821   3.020666
C  0.067953   -2.67631   2.342408
C  -0.960634   -3.159317   1.549015
C  -0.65647   -3.695104   0.228268
C  -1.740517   -3.305219   -0.651263
C  -1.44534   -2.800883   -1.919368
C  -2.156203   -1.628124   -2.410773
C  -3.231244   -1.109317   -1.724943
C  -3.422598   0.340806   -1.648981
C  -4.025642   0.615735   -0.39755
C  -3.584769   1.681714   0.41838
C  -3.231244   1.109317   1.724943
C  -3.422598   -0.340806   1.648981
C  -2.438352   -1.23744   2.184371
C  -2.231766   -2.464328   1.483635
C  -2.763788   -2.657353   0.148168
C  -3.584769   -1.681714   -0.41838
C  -4.025642   -0.615735   0.39755
