68
# C68-S4-5572 from http://ctcp.massey.ac.nz/index.php?page=fullerenes
C   -2.42619954   -1.675928398   -3.025770122
C   -3.379449222   -1.943223533   -1.973516589
C   -4.095976693   -0.707997003   -1.71569177
C   -2.466350338   -0.248194066   -3.307656567
C   -3.346481633   0.366586387   -2.339920784
C   -1.101007992   0.215237923   -3.390080949
C   -1.038249533   -2.030753437   -2.808809108
C   -0.23170476   -0.941604968   -3.309214338
C   -0.64585356   -2.630094173   -1.620216007
C   -2.887107911   -2.430580677   -0.700903286
C   -1.539874437   -2.726763523   -0.541787809
C   -4.338522915   -0.628524986   -0.290365187
C   -3.556959865   -1.683590628   0.348999696
C   -4.338522915   0.628524986   0.290365187
C   -2.87244413   1.404539272   -1.537520243
C   -3.556959865   1.683590628   -0.348999696
C   -0.71932956   1.354831208   -2.697965445
C   -1.56753068   1.899346377   -1.716121876
C   0.64585356   1.620216007   -2.630094173
C   1.034383054   -0.753967313   -2.768557142
C   1.539874437   0.541787809   -2.726763523
C   0.71932956   -2.697965445   -1.354831208
C   1.56753068   -1.716121876   -1.899346377
C   1.101007992   -3.390080949   -0.215237923
C   -1.034383054   -2.768557142   0.753967313
C   0.23170476   -3.309214338   0.941604968
C   -2.87244413   -1.404539272   1.537520243
C   -1.56753068   -1.899346377   1.716121876
C   -4.095976693   0.707997003   1.71569177
C   -3.346481633   -0.366586387   2.339920784
C   -2.887107911   2.430580677   0.700903286
C   -3.379449222   1.943223533   1.973516589
C   -1.034383054   2.768557142   -0.753967313
C   -1.539874437   2.726763523   0.541787809
C   1.038249533   2.808809108   -2.030753437
C   0.23170476   3.309214338   -0.941604968
C   2.42619954   3.025770122   -1.675928398
C   2.887107911   0.700903286   -2.430580677
C   3.379449222   1.973516589   -1.943223533
C   2.87244413   -1.537520243   -1.404539272
C   3.556959865   -0.348999696   -1.683590628
C   2.466350338   -3.307656567   0.248194066
C   3.346481633   -2.339920784   -0.366586387
C   1.038249533   -2.808809108   2.030753437
C   2.42619954   -3.025770122   1.675928398
C   -0.71932956   -1.354831208   2.697965445
C   0.64585356   -1.620216007   2.630094173
C   -2.466350338   0.248194066   3.307656567
C   -2.42619954   1.675928398   3.025770122
C   -1.101007992   -0.215237923   3.390080949
C   -0.64585356   2.630094173   1.620216007
C   -1.038249533   2.030753437   2.808809108
C   -0.23170476   0.941604968   3.309214338
C   1.101007992   3.390080949   0.215237923
C   2.466350338   3.307656567   -0.248194066
C   0.71932956   2.697965445   1.354831208
C   4.095976693   1.71569177   -0.707997003
C   4.338522915   0.290365187   -0.628524986
C   3.346481633   2.339920784   0.366586387
C   4.095976693   -1.71569177   0.707997003
C   3.379449222   -1.973516589   1.943223533
C   4.338522915   -0.290365187   0.628524986
C   1.539874437   -0.541787809   2.726763523
C   1.034383054   0.753967313   2.768557142
C   1.56753068   1.716121876   1.899346377
C   2.87244413   1.537520243   1.404539272
C   2.887107911   -0.700903286   2.430580677
C   3.556959865   0.348999696   1.683590628
