68
# C68-C2-6328 from  http://ctcp.massey.ac.nz/index.php?page=fullerenes
C   2.768444986   -2.165757293   2.160144648
C   2.084605978   -1.079941119   2.843760974
C   0.738931932   -1.527931712   3.135400867
C   1.774015112   -3.164519145   1.805623268
C   0.524199722   -2.778058049   2.420559904
C   1.805187707   -3.335602777   0.3700098
C   3.542529927   -1.865427487   0.969989111
C   2.989059922   -2.651495063   -0.123854967
C   3.928687824   -0.549642273   0.746294031
C   2.28481595   0.224422309   2.411565707
C   3.375585231   0.501863271   1.586023246
C   1.252183986   1.156790815   2.535015777
C   -0.298938587   -0.602878653   3.176394241
C   -0.029676365   0.748167183   2.92990754
C   -1.595456778   -1.087230695   3.005694596
C   -0.660041953   -2.93377719   1.710970197
C   -1.785955277   -2.29962661   2.227659636
C   0.612696857   -3.245424506   -0.345000865
C   -0.612696857   -3.245424506   0.345000865
C   0.660041953   -2.93377719   -1.710970197
C   2.974279123   -2.130717455   -1.409885938
C   1.785955277   -2.29962661   -2.227659636
C   3.994483286   -0.034503876   -0.611897513
C   3.505148082   -0.799225068   -1.664787519
C   3.413364737   1.737415525   0.822648952
C   3.712910931   1.392699816   -0.55952342
C   1.462283678   2.465035801   2.099363555
C   2.484949815   2.728875175   1.103688442
C   0.328914369   3.318332334   1.793975258
C   -1.085922149   1.660066601   2.901772733
C   -0.935338436   2.923940619   2.202298102
C   -2.684784728   -0.17819647   2.694637248
C   -2.436319799   1.185675257   2.657047687
C   -2.974279123   -2.130717455   1.409885938
C   -3.505148082   -0.799225068   1.664787519
C   -1.805187707   -3.335602777   -0.3700098
C   -2.989059922   -2.651495063   0.123854967
C   -0.524199722   -2.778058049   -2.420559904
C   -1.774015112   -3.164519145   -1.805623268
C   -0.738931932   -1.527931712   -3.135400867
C   1.595456778   -1.087230695   -3.005694596
C   2.684784728   -0.17819647   -2.694637248
C   0.298938587   -0.602878653   -3.176394241
C   3.007882613   1.998856714   -1.594088155
C   2.436319799   1.185675257   -2.657047687
C   1.85959833   3.466529697   0.016447769
C   0.526596658   3.851695861   0.454127721
C   2.068029738   3.069588465   -1.300396661
C   -0.526596658   3.851695861   -0.454127721
C   -2.068029738   3.069588465   1.300396661
C   -3.007882613   1.998856714   1.594088155
C   -1.85959833   3.466529697   -0.016447769
C   -3.994483286   -0.034503876   0.611897513
C   -3.712910931   1.392699816   0.55952342
C   -3.542529927   -1.865427487   -0.969989111
C   -2.768444986   -2.165757293   -2.160144648
C   -2.084605978   -1.079941119   -2.843760974
C   -3.928687824   -0.549642273   -0.746294031
C   -2.484949815   2.728875175   -1.103688442
C   -3.413364737   1.737415525   -0.822648952
C   -2.28481595   0.224422309   -2.411565707
C   -3.375585231   0.501863271   -1.586023246
C   0.029676365   0.748167183   -2.92990754
C   1.085922149   1.660066601   -2.901772733
C   0.935338436   2.923940619   -2.202298102
C   -0.328914369   3.318332334   -1.793975258
C   -1.252183986   1.156790815   -2.535015777
C   -1.462283678   2.465035801   -2.099363555
