68
# C68-C1-6322 from http://ctcp.massey.ac.nz/index.php?page=fullerenes
C   1.754858813   -3.715767879   0.557410318
C   0.469608581   -3.770691335   -0.114860033
C   -0.535903546   -3.712253261   0.929127998
C   1.517979737   -3.186924185   1.893946886
C   0.08842054   -3.045334556   2.057202321
C   2.350806602   -2.01848708   2.055185737
C   2.828264248   -2.945838987   -0.041057311
C   3.322579781   -2.030837159   0.976017199
C   2.686000966   -2.503504995   -1.350500282
C   0.276969809   -3.041189381   -1.288845131
C   1.383696257   -2.586226428   -2.001031954
C   -0.989259205   -2.521802775   -1.573691947
C   -1.822795241   -3.342274351   0.582633668
C   -2.070056898   -2.905818487   -0.778897448
C   -2.533140467   -2.416191307   1.445955764
C   -0.440810581   -1.832903908   2.489979462
C   -1.814649095   -1.636032661   2.35337105
C   1.774619748   -0.807755223   2.429577148
C   0.403564481   -0.73477474   2.734811527
C   2.515519821   0.360745863   2.248939933
C   3.901914052   -0.829074495   0.594917445
C   3.581508491   0.370573064   1.348801761
C   3.311075642   -1.256908569   -1.759522241
C   3.947646109   -0.46001875   -0.813023892
C   1.242973897   -1.431875201   -2.869625458
C   2.462246278   -0.646351721   -2.770086587
C   -1.125223551   -1.441025268   -2.453664045
C   0.011232179   -0.789556532   -2.948256299
C   -2.386813759   -0.89739984   -2.685651092
C   -3.278336864   -2.097046946   -0.754677364
C   -3.580145009   -1.806162207   0.64017512
C   -3.448985298   -1.116083504   -1.719919155
C   -4.068567954   -0.55648742   0.998705535
C   -2.388468022   -0.478939278   2.855652617
C   -3.585127012   0.055033597   2.223960662
C   -0.146208121   0.479760379   3.174306842
C   -1.531034352   0.639773046   3.1858248
C   2.006007878   1.56964199   2.697053556
C   0.615120749   1.644295321   3.089064011
C   2.32075097   2.784579544   1.9622953
C   3.758794096   1.507765473   0.459744931
C   3.844322976   0.99008971   -0.896496972
C   3.050520581   2.676358026   0.71247606
C   2.384605462   0.735089698   -2.865544189
C   3.089499523   1.574187896   -1.907205502
C   -0.040419973   0.571291228   -3.284484535
C   1.100464842   1.353513158   -3.137895451
C   -2.480286332   0.477396154   -3.121381654
C   -1.257630091   1.240330645   -3.229239747
C   -3.98493719   0.185918943   -1.345257163
C   -4.170285933   0.492836936   -0.003792663
C   -3.355558835   1.178286425   -2.196858324
C   -3.353663186   1.464661312   1.955753942
C   -2.086218602   1.819700023   2.541321564
C   -3.533458304   1.683718726   0.54052708
C   0.031165062   2.797914336   2.420717785
C   1.071626904   3.474366446   1.688993791
C   -1.215962921   2.637981382   1.83835515
C   2.216548006   3.255687278   -0.331378396
C   2.248502934   2.726258081   -1.613138974
C   1.001329872   2.562153897   -2.337903145
C   0.928703771   3.587092909   0.257202606
C   -1.3664375   2.392293197   -2.345587706
C   -2.583266268   2.244308084   -1.577611278
C   -2.531116767   2.323321275   -0.190322318
C   -1.339593655   2.727775894   0.437292411
C   -0.215025679   2.849693695   -1.72013258
C   -0.240063446   3.127144796   -0.349761148
