68
# C68-D2-6330 from http://ctcp.massey.ac.nz/index.php?page=fullerenes 
C   -3.160076444   -1.917731007   -1.965136771
C   -1.891039208   -1.648124187   -2.620820962
C   -1.801679038   -0.212327932   -2.829642026
C   -3.820009353   -0.647517382   -1.71949933
C   -2.962522638   0.409547191   -2.223603814
C   -4.214537496   -0.612255016   -0.324734548
C   -3.150190768   -2.664019058   -0.719965869
C   -3.586792079   -1.753730369   0.328442182
C   -2.068943075   -3.491669244   -0.469826497
C   -0.760795458   -2.352523318   -2.203832257
C   -0.957700288   -3.478306614   -1.406620757
C   0.486169339   -1.70839426   -2.212914796
C   -0.567449153   0.399312607   -2.695713414
C   0.567449153   -0.399312607   -2.695713414
C   -0.486169339   1.70839426   -2.212914796
C   -2.782743377   1.554521969   -1.456972987
C   -1.609599422   2.297991084   -1.607783741
C   -4.214537496   0.612255016   0.324734548
C   -3.586792079   1.753730369   -0.328442182
C   -3.820009353   0.647517382   1.71949933
C   -2.782743377   -1.554521969   1.456972987
C   -2.962522638   -0.409547191   2.223603814
C   -1.466873498   -3.453615834   0.846700647
C   -1.609599422   -2.297991084   1.607783741
C   0.164237919   -4.065510916   -0.710571728
C   -0.164237919   -4.065510916   0.710571728
C   1.609599422   -2.297991084   -1.607783741
C   1.466873498   -3.453615834   -0.846700647
C   2.782743377   -1.554521969   -1.456972987
C   1.801679038   0.212327932   -2.829642026
C   2.962522638   -0.409547191   -2.223603814
C   0.760795458   2.352523318   -2.203832257
C   1.891039208   1.648124187   -2.620820962
C   0.957700288   3.478306614   -1.406620757
C   -1.466873498   3.453615834   -0.846700647
C   -0.164237919   4.065510916   -0.710571728
C   -3.150190768   2.664019058   0.719965869
C   -3.160076444   1.917731007   1.965136771
C   -2.068943075   3.491669244   0.469826497
C   -1.801679038   0.212327932   2.829642026
C   -1.891039208   1.648124187   2.620820962
C   -0.486169339   -1.70839426   2.212914796
C   -0.567449153   -0.399312607   2.695713414
C   0.957700288   -3.478306614   1.406620757
C   2.068943075   -3.491669244   0.469826497
C   0.760795458   -2.352523318   2.203832257
C   3.586792079   -1.753730369   -0.328442182
C   3.150190768   -2.664019058   0.719965869
C   4.214537496   -0.612255016   0.324734548
C   3.820009353   0.647517382   -1.71949933
C   3.160076444   1.917731007   -1.965136771
C   4.214537496   0.612255016   -0.324734548
C   2.068943075   3.491669244   -0.469826497
C   3.150190768   2.664019058   -0.719965869
C   3.586792079   1.753730369   0.328442182
C   0.164237919   4.065510916   0.710571728
C   -0.957700288   3.478306614   1.406620757
C   -0.760795458   2.352523318   2.203832257
C   1.466873498   3.453615834   0.846700647
C   0.567449153   0.399312607   2.695713414
C   2.782743377   1.554521969   1.456972987
C   0.486169339   1.70839426   2.212914796
C   1.609599422   2.297991084   1.607783741
C   1.891039208   -1.648124187   2.620820962
C   3.160076444   -1.917731007   1.965136771
C   3.820009353   -0.647517382   1.71949933
C   1.801679038   -0.212327932   2.829642026
C   2.962522638   0.409547191   2.223603814
