70
# C70-C1-8146 from http://ctcp.massey.ac.nz/index.php?page=fullerenes  
C    -2.91499    -2.38793    -1.96007
C    -1.83240    -1.84788    -2.76619
C    -2.08261    -0.43144    -2.95361
C    -3.80108    -1.29407    -1.60757
C    -3.34764    -0.11178    -2.30831
C    -3.90619    -1.24883    -0.16052
C    -2.58355    -3.10915    -0.74377
C    -3.13573    -2.36249    0.37411
C    -1.31344    -3.64776    -0.62933
C    -0.53668    -2.27489    -2.51194
C    -0.35120    -3.38080    -1.68329
C    0.52496    -1.39287    -2.71825
C    -1.02380    0.46958    -2.86197
C    0.28750    -0.01176    -2.74736
C    -1.30228    1.81041    -2.58995
C    -3.47930    1.11422    -1.67944
C    -2.49742    2.14608    -1.95403
C    -3.85916    -0.01827    0.49563
C    -3.77531    1.16169    -0.25061
C    -3.47993    0.00214    1.83811
C    -2.38234    -2.15989    1.52778
C    -2.81420    -1.16451    2.39518
C    -0.60069    -3.51385    0.62907
C    -1.05217    -2.60399    1.57836
C    0.95971    -3.63626    -1.12397
C    0.81892    -3.58108    0.32723
C    1.82543    -1.86701    -2.56042
C    2.05595    -3.02812    -1.71241
C    2.90602    -0.92672    -2.33296
C    1.35611    0.88721    -2.63002
C    2.61532    0.42769    -2.24041
C    -0.26469    2.73278    -2.57423
C    1.10540    2.25755    -2.60826
C    -0.32825    3.83277    -1.62606
C    -2.46634    3.03154    -0.80154
C    -3.06700    2.30774    0.30274
C    -1.32374    3.77941    -0.57247
C    -2.81120    1.17744    2.37459
C    -2.36775    2.15544    1.49434
C    -1.94274    -0.71445    3.45716
C    -1.94709    0.74185    3.45052
C    -0.12265    -1.98946    2.42771
C    -0.56213    -1.14406    3.44430
C    1.71664    -2.82104    1.07292
C    1.24529    -2.03499    2.12911
C    3.20296    -2.74154    -0.87552
C    3.81271    -1.51881    -1.36281
C    2.99219    -2.59199    0.55252
C    4.21262    -0.73157    -0.20964
C    3.75686    -1.43315    0.98281
C    3.41905    1.23279    -1.43381
C    4.09141    0.64955    -0.28384
C    1.89447    3.11076    -1.73115
C    0.97186    3.95601    -0.99948
C    2.94224    2.54039    -1.02910
C    -0.61875    3.60928    0.68987
C    -1.06231    2.65551    1.60113
C    0.80493    3.72469    0.42517
C    -0.56784    1.17939    3.44867
C    0.23485    0.01901    3.78610
C    -0.13004    2.03430    2.44015
C    2.11246    -1.14500    2.76429
C    3.31992    -0.71402    2.08476
C    1.57131    0.02171    3.43623
C    3.67989    1.40775    0.88846
C    2.88688    2.53652    0.42608
C    1.69040    2.86545    1.06873
C    1.23418    2.07852    2.12953
C    3.29915    0.74217    2.04382
C    2.10704    1.18209    2.74715
