72

C	0.72023  	4.17661		0.000000
C	1.1747475	3.608585	-1.2423325
C	0.000000    3.35552		-2.078
C	-0.72023	4.17661		0.000000
C	-1.1747475	3.608585	-1.2423325
C	-1.1747475	3.608585	1.2423325
C	1.1747475	3.608585	1.2423325
C	0.000000    3.35552		2.078
C	2.333725	2.7423675	1.284135
C	2.333725	2.7423675	-1.284135
C	2.98775	    2.3510975	0.000000
C	2.3957725	1.83425	-2.4018325
C	0.000000    2.2969075	-3.043025
C	1.229515	1.580705	-3.25396
C	-1.229515	1.580705	-3.25396
C	-2.333725	2.7423675	-1.284135
C	-2.3957725	1.83425		-2.4018325
C	-2.333725	2.7423675	1.284135
C	-2.98775	2.3510975	0.000000
C	-2.3957725	1.83425		2.4018325
C	0.000000    2.2969075	3.043025
C	-1.229515	1.580705	3.25396
C	2.3957725	1.83425		2.4018325
C	1.229515	1.580705	3.25396
C	3.1793575	0.6131925	2.3519275
C	3.78976		1.1582625	0.000000
C	3.8841875	0.288395	1.174775
C	3.1793575	0.6131925	-2.3519275
C	3.8841875	0.288395	-1.174775
C	1.22804		0.1713425	-3.607575
C	2.457075	-0.42131	-3.0917775
C	-1.22804	0.1713425	-3.607575
C	0.000000    -0.58911	-3.6881125
C	-3.1793575	0.6131925	-2.3519275
C	-2.457075	-0.42131	-3.0917775
C	-3.78976	1.1582625	0.000000
C	-3.8841875	0.288395	-1.174775
C	-3.1793575	0.6131925	2.3519275
C	-3.8841875	0.288395	1.174775
C	-1.22804	0.1713425	3.607575
C	-2.457075	-0.42131	3.0917775
C	1.22804		0.1713425	3.607575
C	2.457075	-0.42131	3.0917775
C	0.000000    -0.58911	3.6881125
C	2.46376	-1.7537225	2.6271475
C	3.95378	-1.1091225	0.72881
C	3.95378	-1.1091225	-0.72881
C	3.2417225	-2.1110325	1.4392225
C	2.46376	-1.7537225	-2.6271475
C	3.2417225	-2.1110325	-1.4392225
C	0.000000    -1.979875	-3.1732525
C	1.2222675	-2.5235525	-2.629285
C	-2.46376	-1.7537225	-2.6271475
C	-1.2222675	-2.5235525	-2.629285
C	-3.95378	-1.1091225	-0.72881
C	-3.95378	-1.1091225	0.72881
C	-3.2417225	-2.1110325	-1.4392225
C	-2.46376	-1.7537225	2.6271475
C	-3.2417225	-2.1110325	1.4392225
C	0.000000    -1.979875	3.1732525
C	1.2222675	-2.5235525	2.629285
C	-1.2222675	-2.5235525	2.629285
C	2.46953	-3.11162	0.7064525
C	2.46953	-3.11162	-0.7064525
C	1.22125	-3.3544725	-1.4346775
C	1.22125	-3.3544725	1.4346775
C	-1.22125	-3.3544725	-1.4346775
C	-2.46953	-3.11162	-0.7064525
C	-2.46953	-3.11162	0.7064525
C	-1.22125	-3.3544725	1.4346775
C	0.000000    -3.6778225	-0.7423675
C	0.000000    -3.6778225	0.7423675