74

C	1.28390791	-3.99286706	0.55006445
C	2.22276491	-3.12926223	1.23339429
C	1.60561978	-2.69167296	2.47668141
C	0.05998386	-4.03148090	1.33402351
C	0.22131256	-3.13884815	2.45808696
C	-1.04752034	-3.80853872	0.43557487
C	0.92888707	-3.67740893	-0.81764271
C	-0.51725384	-3.71768867	-0.91696084
C	1.61228294	-2.66474019	-1.47372957
C	2.96148343	-2.21342648	0.49630730
C	2.74839820	-2.09436416	-0.88225229
C	3.57062967	-1.17175336	1.18792152
C	1.90656874	-1.42493970	2.97852605
C	2.98886456	-0.72797782	2.44569813
C	0.92677765	-0.72803122	3.68198557
C	-0.78241401	-2.22607222	2.75723327
C	-0.45709457	-1.17235710	3.60634561
C	-2.06987068	-2.94294857	0.80732542
C	-1.93414828	-2.14895213	1.95816423
C	-2.95984916	-2.56187940	-0.19303946
C	-1.16191715	-2.88564214	-1.82819464
C	-2.49091841	-2.54997067	-1.56934831
C	0.99272821	-2.03524503	-2.55376378
C	-0.39991063	-2.08376297	-2.68604081
C	1.72622587	-1.16264793	-3.35179851
C	3.50086377	-1.16826674	-1.59992292
C	3.03288760	-0.72826539	-2.89989471
C	4.04552810	0.00000000	0.47163715
C	4.02183058	0.00000000	-0.91326449
C	2.98886456	0.72797782	2.44569813
C	3.57062967	1.17175336	1.18792152
C	0.92677765	0.72803122	3.68198557
C	1.90656874	1.42493970	2.97852605
C	-1.31022136	0.00000000	3.68152386
C	-0.45709457	1.17235710	3.60634561
C	-2.89116109	-1.17195139	2.23728605
C	-2.51750303	0.00000000	3.00906371
C	-3.83726265	-1.42084635	-0.00513448
C	-3.79904772	-0.72802183	1.19483721
C	-3.10893574	-1.42116526	-2.24376844
C	-3.90312796	-0.69495838	-1.26439496
C	-1.03934126	-1.16620243	-3.52008570
C	-2.38675455	-0.72819500	-3.20373615
C	1.06689473	0.00000000	-3.91530304
C	-0.31384639	0.00000000	-3.99315236
C	3.03288760	0.72826539	-2.89989471
C	3.50086377	1.16826674	-1.59992292
C	1.72622587	1.16264793	-3.35179851
C	2.96148343	2.21342648	0.49630730
C	2.74839820	2.09436416	-0.88225229
C	1.60561978	2.69167296	2.47668141
C	2.22276491	3.12926223	1.23339429
C	-0.78241401	2.22607222	2.75723327
C	0.22131256	3.13884815	2.45808696
C	-2.89116109	1.17195139	2.23728605
C	-3.79904772	0.72802183	1.19483721
C	-1.93414828	2.14895213	1.95816423
C	-3.90312796	0.69495838	-1.26439496
C	-3.83726265	1.42084635	-0.00513448
C	-2.38675455	0.72819500	-3.20373615
C	-1.03934126	1.16620243	-3.52008570
C	-3.10893574	1.42116526	-2.24376844
C	0.99272821	2.03524503	-2.55376378
C	1.61228294	2.66474019	-1.47372957
C	-0.39991063	2.08376297	-2.68604081
C	1.28390791	3.99286706	0.55006445
C	0.05998386	4.03148090	1.33402351
C	0.92888707	3.67740893	-0.81764271
C	-2.06987068	2.94294857	0.80732542
C	-2.95984916	2.56187940	-0.19303946
C	-2.49091841	2.54997067	-1.56934831
C	-1.16191715	2.88564214	-1.82819464
C	-1.04752034	3.80853872	0.43557487
C	-0.51725384	3.71768867	-0.91696084