74

C	3.25320132	-3.06690564	-0.30905008
C	4.01309041	-1.85488855	-0.06249623
C	3.78931832	-1.47684562	1.32558348
C	2.56965410	-3.41822877	0.92516972
C	2.71954918	-2.31321748	1.84055992
C	1.23438010	-3.83471676	0.57960231
C	2.26407905	-3.07074676	-1.37483012
C	1.09097590	-3.74259435	-0.86458225
C	2.10420169	-1.93372701	-2.15195494
C	4.03483564	-0.87427747	-1.04648587
C	3.13245189	-0.99083189	-2.18143972
C	4.08341026	0.52944704	-0.66828906
C	3.81394889	-0.13819845	1.68595910
C	4.01851308	0.88452174	0.67022010
C	2.80904020	0.35660891	2.61154120
C	1.58348172	-1.70924924	2.37848738
C	1.71089194	-0.43448495	2.93673751
C	0.16459583	-3.41557869	1.35996784
C	0.30712335	-2.26080040	2.14926873
C	-1.09097590	-3.74259435	0.86458225
C	-0.16459583	-3.41557869	-1.35996784
C	-1.23438010	-3.83471676	-0.57960231
C	0.83351726	-1.59500873	-2.62565669
C	-0.30712335	-2.26080040	-2.14926873
C	0.68785038	-0.45518484	-3.41019963
C	2.87107627	0.35071404	-2.66785281
C	3.30589688	1.28190190	-1.63987514
C	1.68710510	0.59760509	-3.33755350
C	2.43853016	2.28738428	-1.21063059
C	3.24535976	2.05091484	1.05583287
C	2.60530164	1.76754511	2.33084120
C	2.54085786	2.77677250	0.10157461
C	1.37047991	2.34979309	2.61365862
C	0.60961618	0.18047494	3.50890994
C	0.42528560	1.61523133	3.33137692
C	-0.83351726	-1.59500873	2.62565669
C	-0.68785038	-0.45518484	3.41019963
C	-2.26407905	-3.07074676	1.37483012
C	-2.10420169	-1.93372701	2.15195494
C	-2.56965410	-3.41822877	-0.92516972
C	-3.25320132	-3.06690564	0.30905008
C	-1.58348172	-1.70924924	-2.37848738
C	-2.71954918	-2.31321748	-1.84055992
C	-0.60961618	0.18047494	-3.50890994
C	-1.71089194	-0.43448495	-2.93673751
C	0.99012935	1.84700293	-3.09559693
C	1.37386352	2.66933918	-2.04109284
C	-0.42528560	1.61523133	-3.33137692
C	0.47778396	3.64723854	-1.62998289
C	1.61645590	3.69909879	0.57410283
C	0.94587970	3.42964438	1.83753556
C	0.64573638	4.26424697	-0.33422775
C	-0.47778396	3.64723854	1.62998289
C	-0.64573638	4.26424697	0.33422775
C	-0.99012935	1.84700293	3.09559693
C	-1.68710510	0.59760509	3.33755350
C	-1.37386352	2.66933918	2.04109284
C	-3.13245189	-0.99083189	2.18143972
C	-2.87107627	0.35071404	2.66785281
C	-4.01309041	-1.85488855	0.06249623
C	-3.78931832	-1.47684562	-1.32558348
C	-4.03483564	-0.87427747	1.04648587
C	-2.80904020	0.35660891	-2.61154120
C	-3.81394889	-0.13819845	-1.68595910
C	-1.37047991	2.34979309	-2.61365862
C	-0.94587970	3.42964438	-1.83753556
C	-1.61645590	3.69909879	-0.57410283
C	-2.60530164	1.76754511	-2.33084120
C	-2.43853016	2.28738428	1.21063059
C	-3.30589688	1.28190190	1.63987514
C	-4.08341026	0.52944704	0.66828906
C	-4.01851308	0.88452174	-0.67022010
C	-2.54085786	2.77677250	-0.10157461
C	-3.24535976	2.05091484	-1.05583287