76
# C76-C2-19147 from http://ctcp.massey.ac.nz/index.php?page=fullerenes  
C   0.80890239   -2.460116456   3.433601893
C   2.054913208   -1.956946747   2.901420512
C   2.369998539   -2.712825283   1.698326091
C   0.302258358   -3.461137679   2.506938683
C   1.210281255   -3.521322724   1.37710372
C   -1.093891341   -3.157900766   2.259170023
C   -0.259347513   -1.518660996   3.684687244
C   -1.483504118   -2.144973163   3.222383917
C   -0.04570411   -0.16843948   3.417824031
C   2.298005976   -0.588656854   2.904052688
C   1.254736618   0.301857367   3.199749053
C   3.386659753   -0.148036932   2.15806698
C   3.058573264   -2.069503301   0.671926857
C   3.79264164   -0.929526631   1.001466835
C   2.669645097   -2.281940249   -0.656519826
C   0.693552349   -3.456789577   0.092300903
C   1.533231302   -3.047272983   -0.943010524
C   -1.533231302   -3.047272983   0.943010524
C   -0.693552349   -3.456789577   -0.092300903
C   -2.669645097   -2.281940249   0.656519826
C   -2.564160308   -1.335763099   2.92656806
C   -3.274757594   -1.548302754   1.677657571
C   -1.146604296   0.660692273   3.16787558
C   -2.421785407   0.099880449   3.089162236
C   -0.95906171   1.999351649   2.808701423
C   1.45927264   1.670453646   3.063962761
C   0.324885092   2.530231442   2.787391536
C   3.531522824   1.257909375   1.827942224
C   2.585134996   2.160846293   2.287194312
C   4.221964313   -0.005575081   -0.034502066
C   4.021233521   1.347928836   0.460798792
C   3.274757594   -1.548302754   -1.677657571
C   3.955494737   -0.305510343   -1.361740673
C   2.564160308   -1.335763099   -2.92656806
C   1.093891341   -3.157900766   -2.259170023
C   1.483504118   -2.144973163   -3.222383917
C   -1.210281255   -3.521322724   -1.37710372
C   -0.302258358   -3.461137679   -2.506938683
C   -3.058573264   -2.069503301   -0.671926857
C   -2.369998539   -2.712825283   -1.698326091
C   -3.79264164   -0.929526631   -1.001466835
C   -3.955494737   -0.305510343   1.361740673
C   -3.427596246   0.722572725   2.248272192
C   -4.221964313   -0.005575081   0.034502066
C   -1.952452051   2.671883275   2.098245446
C   -3.19862996   2.00266242   1.766542649
C   -1.569719743   3.498953555   0.964330348
C   0.695091765   3.422845734   1.698984023
C   2.100851373   3.215248087   1.40916719
C   -0.216089253   3.643800035   0.667142787
C   3.529224407   2.332071546   -0.388931864
C   2.537566155   3.280012394   0.095682831
C   3.427596246   0.722572725   -2.248272192
C   2.421785407   0.099880449   -3.089162236
C   3.19862996   2.00266242   -1.766542649
C   1.146604296   0.660692273   -3.16787558
C   0.259347513   -1.518660996   -3.684687244
C   -0.80890239   -2.460116456   -3.433601893
C   -2.054913208   -1.956946747   -2.901420512
C   0.04570411   -0.16843948   -3.417824031
C   -3.386659753   -0.148036932   -2.15806698
C   -2.298005976   -0.588656854   -2.904052688
C   -1.254736618   0.301857367   -3.199749053
C   -4.021233521   1.347928836   -0.460798792
C   -3.529224407   2.332071546   0.388931864
C   -2.537566155   3.280012394   -0.095682831
C   -3.531522824   1.257909375   -1.827942224
C   -1.45927264   1.670453646   -3.063962761
C   -2.100851373   3.215248087   -1.40916719
C   -2.585134996   2.160846293   -2.287194312
C   0.216089253   3.643800035   -0.667142787
C   1.569719743   3.498953555   -0.964330348
C   1.952452051   2.671883275   -2.098245446
C   0.95906171   1.999351649   -2.808701423
C   -0.695091765   3.422845734   -1.698984023
C   -0.324885092   2.530231442   -2.787391536
