76
#C76-C3v-19144 http://ctcp.massey.ac.nz/index.php?page=fullerenes 
C   2.854846332   0.744114538   -3.229807399
C   3.510826897   1.176666436   -2.021532046
C   4.097812095   0.006665223   -1.387873565
C   2.854846332   -0.713058816   -3.236805432
C   3.510826897   -1.157195909   -2.032740353
C   1.496292652   -1.138976571   -3.475473506
C   1.496292652   1.172304987   -3.464373643
C   0.80979149   0.019271389   -4.012806724
C   0.843467602   1.951239897   -2.507736041
C   2.907746209   2.129682924   -1.215973728
C   1.539804795   2.425405278   -1.384820747
C   3.510826897   2.33900274   0.014209122
C   4.265804862   1.96986E-14   -3.37967E-13
C   4.097812095   1.198601153   0.699709035
C   4.097812095   -1.205266376   0.68816453
C   2.907746209   -2.117905601   -1.23637265
C   3.510826897   -2.339031325   -0.008257002
C   0.843467602   -1.927063788   -2.526361483
C   1.539804795   -2.411992586   -1.408052212
C   -0.553539533   -1.96219387   -2.544601971
C   -0.567926185   0.019176332   -3.993013474
C   -1.240856462   -1.139625482   -3.441107459
C   -0.553539533   1.986543553   -2.525638273
C   -1.240856462   1.172623793   -3.430002948
C   -1.251361571   2.605162213   -1.487455608
C   0.843467602   3.151425118   -0.405705454
C   -0.553539533   3.184786884   -0.427008753
C   2.854846332   3.159685139   1.000875667
C   1.496292652   3.579336632   0.751354109
C   3.510826897   1.162364889   2.029789049
C   2.854846332   2.425037987   2.259325793
C   3.510826897   -1.181806831   2.018531231
C   2.907746209   -0.011777323   2.452346378
C   2.854846332   -3.169152526   0.970481606
C   2.854846332   -2.446626323   2.235929765
C   0.843467602   -3.147383066   -0.435955299
C   1.496292652   -3.586388077   0.716940922
C   -1.251361571   -2.59075545   -1.512408853
C   -0.553539533   -3.180538682   -0.457578046
C   -2.641263188   -2.466221437   -1.439709462
C   -2.594883474   -0.71374366   -3.136740041
C   -2.594883474   0.743838251   -3.129740046
C   -3.310318405   -1.409832117   -2.176960447
C   -2.641263188   2.479935687   -1.415955685
C   -3.310318405   1.430676185   -2.163318988
C   -3.310318405   2.590219109   -0.132470205
C   -1.240856462   3.549899218   0.733609111
C   -2.594883474   3.07336839   0.950249879
C   0.80979149   3.465556869   2.023092874
C   1.496292652   2.41408309   2.747432721
C   -0.567926185   3.44846294   2.013113928
C   1.539804795   -0.013412692   2.792872959
C   0.843467602   1.196143169   2.94369134
C   1.496292652   -2.440360061   2.724119398
C   0.80979149   -3.484828258   1.98971385
C   0.843467602   -1.22436133   2.932066937
C   -1.240856462   -3.556781585   0.69947948
C   -0.567926185   -3.467639273   1.979899546
C   -3.310318405   -2.588827292   -0.157342426
C   -2.594883474   -3.082353512   0.920687202
C   -4.164104908   -0.68952901   -1.244756823
C   -4.164104908   0.701452747   -1.238076673
C   -4.164104908   1.422755535   0.025228772
C   -4.164104908   -1.422932224   0.011562438
C   -4.164104908   0.721479477   1.226514235
C   -4.164104908   -0.733226525   1.219528051
C   -2.594883474   2.338515262   2.209052844
C   -1.240856462   2.384157792   2.730523468
C   -0.553539533   1.193995129   2.983216319
C   -3.310318405   1.158151108   2.320661414
C   -0.553539533   -1.222593014   2.971610724
C   -1.240856462   -2.410273735   2.707498348
C   -2.594883474   -2.35962473   2.186490162
C   -3.310318405   -1.180386992   2.309430652
C   -1.251361571   -0.014406763   2.999864461
C   -2.641263188   -0.01371425   2.855665147
